*Heading
** Job name: circle Model name: Model-1
** Generated by: Abaqus/CAE 2021
*Preprint, echo=NO, model=NO, history=NO, contact=NO
**
** PARTS
**
*Part, name=Part-3
*Node
      1, -0.0405210927, -0.802822053
      2, -0.155516535, -0.637603581
      3, -0.326347381, -0.531123936
      4, -0.525324583, -0.500641763
      5, -0.720197082, -0.551097751
      6, -0.879379034, -0.674313784
      7, -0.977069616, -0.850318432
      8, -0.977069616,  -1.14968157
      9, -0.879379034,  -1.32568622
     10, -0.720197082,  -1.44890225
     11, -0.525324583,   -1.4993583
     12, -0.326347381,  -1.46887612
     13, -0.155516535,  -1.36239636
     14, -0.0405210927,  -1.19717789
     15,           0.,          -1.
     16, 0.0561788119, -0.294499636
     17,  0.152786404, -0.470228195
     18,  0.371338576, -0.675462365
     19,  0.650094926, -0.785829782
     20,  0.850232422, -0.798421383
** ... 1052 like lines cut
*Element, type=DC2D3
   1,  542,  541,  274
   2,  730,  672,  154
   3,  588,    2,  259
   4,  559,  259,    1
   5,  555,    1,  258
   6,  559,  555,  155
   7,  575,  113,   15
   8,  763,  101,  663
   9,  979,  115,  961
  10,  988,  732,  126
  11,  807,  386,   83
  12,  387,  257,   83
  13,  406,  387,  388
  14,  489,  389,  390
  15,  489,  463,  389
  16,  506,   85,  434
  17, 1067,  489,  630
  18,  760,  127,  666
  19, 1041,  126,  964
  20, 1047, 1007, 1028
** ... 1890 like lines cut
*Nset, nset=Set-1, generate
    1,  1072,     1
*Elset, elset=Set-1, generate
    1,  1910,     1
** Section: Section-1
*Solid Section, elset=Set-1, material=Material-1
,
*End Part
**  
**
** ASSEMBLY
**
*Assembly, name=Assembly
**  
*Instance, name=Part-3-1, part=Part-3
*End Instance
**  
*Nset, nset=Set-3, instance=Part-3-1
   1,   2,   3,   4,   5,   6,   7,   8,   9,  10,  11,  12,  13,  14,  15,  16
  17,  18,  19,  20,  21,  22,  23,  24,  25,  26,  27,  28,  29,  30,  31,  32
  33,  34,  35,  36,  37,  38,  39,  40,  41,  42,  43,  44,  45,  46,  47,  48
  49, 258, 259, 260, 261, 262, 263, 264, 265, 266, 267, 268, 269, 270, 271, 272
 273, 274, 275, 276, 277, 278, 279, 280, 281, 282, 283, 284, 285, 286, 287, 288
 289, 290, 291, 292, 293, 294, 295, 296, 297, 298, 299, 300, 301, 302, 303, 304
 305, 306, 307, 308, 309, 310, 311, 312, 313, 314, 315, 316, 317, 318, 403, 404
*Elset, elset=Set-3, instance=Part-3-1
    3,    4,    5,   23,   26,   28,   37,   56,   58,   62,  109,  123,  125,  127,  130,  131
  136,  138,  140,  159,  174,  186,  193,  196,  197,  202,  203,  204,  205,  206,  289,  297
  298,  317,  341,  344,  352,  369,  383,  384,  386,  399,  408,  424,  456,  458,  460,  464
  465,  467,  468,  471,  472,  475,  476,  479,  480,  482,  485,  486,  487,  489,  490,  492
  493,  494,  495,  496,  497,  498,  499,  500,  501,  502,  503,  573,  788,  792,  795,  800
  811,  815,  821,  823,  828,  829,  831,  842,  848,  849,  859,  864,  865,  878,  879,  891
  896,  900,  903,  908,  913,  915,  917,  922,  923,  925,  928,  931,  933, 1071, 1073, 1675
*Nset, nset=Set-4, instance=Part-3-1
  50,  51,  52,  53,  54,  55,  56,  57,  58,  59,  60,  61,  62,  63,  64,  65
  66,  67,  68,  69,  70,  71,  72,  73,  74,  75,  76,  77,  78,  79,  80,  81
  82,  83,  84,  85,  86,  87,  88,  89,  90,  91, 319, 320, 321, 322, 323, 324
 325, 326, 327, 328, 329, 330, 331, 332, 333, 334, 335, 336, 337, 338, 339, 340
 341, 342, 343, 344, 345, 346, 347, 348, 349, 350, 351, 352, 353, 354, 355, 356
 357, 358, 359, 360, 361, 362, 363, 364, 365, 366, 367, 368, 369, 370, 371, 372
 373, 374, 375, 376, 377, 378, 379, 380, 381, 382, 383, 384, 385, 386, 387, 388
 389, 390, 391, 392, 393, 394, 395, 396, 397, 398, 399, 400, 401, 402
*Elset, elset=Set-4, instance=Part-3-1
   11,   12,   13,   14,   21,   31,   47,   49,   71,   72,   74,   75,   76,   78,   79,  153
  156,  183,  217,  219,  224,  230,  232,  233,  244,  247,  248,  250,  252,  255,  266,  278
  284,  323,  339,  340,  417,  427,  435,  448,  511,  512,  513,  514,  515,  516,  518,  520
  522,  524,  528,  529,  533,  534,  537,  539,  544,  545,  546,  547,  548,  549,  551,  553
  555,  559,  561,  562,  566,  567,  570,  572,  598,  605,  609,  610,  612,  617,  622,  623
  626,  634,  639,  652,  654,  657,  659,  668,  673,  675,  680,  687,  692,  693,  696,  701
  705,  707,  710,  713,  715,  724,  725,  730,  731,  733,  735,  746,  749,  755,  758,  762
  763,  767,  770,  773,  776,  777,  782,  786, 1047, 1048, 1051, 1057, 1060, 1865
*End Assembly
** 
** MATERIALS
** 
*Material, name=Material-1
*Conductivity
1.,
** ----------------------------------------------------------------
** 
** STEP: Step-1
** 
*Step, name=Step-1, nlgeom=NO
*Heat Transfer, steady state, deltmx=0.
1., 1., 1e-05, 1., 
** 
** BOUNDARY CONDITIONS
** 
** Name: BC-1 Type: Temperature
*Boundary
Set-4, 11, 11, 373.15
** Name: BC-2 Type: Temperature
*Boundary
Set-3, 11, 11, 273.15
** 
** OUTPUT REQUESTS
** 
*Restart, write, frequency=0
** 
** FIELD OUTPUT: F-Output-1
** 
*Output, field
*Node Output
COORD, NT, RFL
*Element Output, directions=YES
HFL, 
*Output, history, frequency=0
*End Step
