*Heading
** Job name: darcy Model name: Model-1
** Generated by: Abaqus/CAE 2021
*Preprint, echo=NO, model=NO, history=NO, contact=NO
**
** PARTS
**
*Part, name=Part-3
*Node
      1,   1.42105258,           0.
      2,   1.34210527,           0.
      3,   1.26315784,           0.
      4,   1.18421054,           0.
      5,   1.06578946,           0.
      6,  0.986842096,           0.
      7,  0.907894731,           0.
      8,  0.828947365,           0.
      9,         0.75,           0.
     10,  0.671052635,           0.
     11,  0.592105269,           0.
     12,  0.513157904,           0.
     13,  0.434210539,           0.
     14,  0.315789461,           0.
     15,  0.236842111,           0.
     16,  0.157894731,           0.
     17, 0.0789473653,           0.
     18,          1.5,           0.
     19,           0.,           0.
     20,          1.5,   1.42105258
** ... 2808 like lines cut
*Element, type=CPE4RP
   1,  607,  962,  762,   19
   2,  762,  962, 1064,  158
   3, 1067,  763,  158, 1064
   4,  160,  764, 1068, 1066
   5, 1058,  161,  765, 1069
   6,  162,  766, 1061, 1059
   7, 1062, 1060,  768,  767
   8,  769,  163, 1133, 1070
   9, 1134, 1071,  770,  164
  10, 1135, 1072,  771,  165
  11, 1136, 1073,  772,  166
  12, 1137, 1074,  773,  167
  13, 1138, 1075,  774,  168
  14, 1139, 1076,  775,  169
  15, 1140, 1077,  776,  170
  16,  172,  777, 1078, 1142
  17,  173,  778, 1079, 1143
  18,  174,  779, 1080, 1144
  19,  781,  780, 1145, 1081
  20, 1146, 1082,  782,  175
** ... 2617 like lines cut
*Nset, nset=Set-1, generate
    1,  2828,     1
*Elset, elset=Set-1, generate
    1,  2637,     1
** Section: Section-1
*Solid Section, elset=Set-1, material=Material-1
,
*End Part
**  
**
** ASSEMBLY
**
*Assembly, name=Assembly
**  
*Instance, name=Part-3-1, part=Part-3
*End Instance
**  
*Nset, nset=Set-10, instance=Part-3-1
 151, 152, 153, 154, 155, 156, 157, 755, 756, 757, 758, 759, 760, 761
*Elset, elset=Set-10, instance=Part-3-1
   25,   50,   70,   93,  118,  143, 1061, 1062, 1063, 1065, 1066, 1067, 1108
*Nset, nset=Set-11, instance=Part-3-1
  61,  62,  63,  64,  65,  66,  67, 655, 656, 657, 658, 659, 660, 661
*Elset, elset=Set-11, instance=Part-3-1
 381, 422, 446, 471, 472, 496, 521, 980, 981, 982, 983, 984, 985
*Nset, nset=Set-10_PP_, internal, instance=Part-3-1
 151, 152, 153, 154, 155, 156, 157, 755, 756, 757, 758, 759, 760, 761
*Nset, nset=Set-11_PP_, internal, instance=Part-3-1
  61,  62,  63,  64,  65,  66,  67, 655, 656, 657, 658, 659, 660, 661
*End Assembly
** 
** MATERIALS
** 
*Material, name=Material-1
*Density
2.,
*Elastic
 1e+10, 0.3
*Permeability, specific=9.81
 0.0101937,1.
*Porous Bulk Moduli
0., 2.2e+06
** 
** BOUNDARY CONDITIONS
** 
** Name: BC-3 Type: Displacement/Rotation
*Boundary
Part-3-1.Set-1, 1, 1
Part-3-1.Set-1, 2, 2
Part-3-1.Set-1, 6, 6
** 
** PREDEFINED FIELDS
** 
** Name: Predefined Field-1   Type: Void ratio
*Initial Conditions, TYPE=RATIO
Part-3-1.Set-1, 1.
** ----------------------------------------------------------------
** 
** STEP: Step-1
** 
*Step, name=Step-1, nlgeom=NO
*Soils, utol=1.0
1., 1., 1e-05, 1., 
** 
** BOUNDARY CONDITIONS
** 
** Name: BC-1 Type: Pore pressure
*Boundary
Set-10_PP_, 8, 8, 98.1
** Name: BC-2 Type: Pore pressure
*Boundary
Set-11_PP_, 8, 8
** 
** LOADS
** 
** Name: Load-1   Type: Gravity
*Dload
, GRAV, 9.81, 0., -1.
** 
** OUTPUT REQUESTS
** 
*Restart, write, frequency=0
** 
** FIELD OUTPUT: F-Output-1
** 
*Output, field, frequency=99999
*Node Output
COORD, POR
*Element Output, directions=YES
FLUVR, FLVEL, HP, P
** 
** HISTORY OUTPUT: H-Output-1
** 
*Output, history, variable=PRESELECT
*End Step
