*Heading
** Job name: cylinder Model name: Model-1
** Generated by: Abaqus/CAE 2021
*Preprint, echo=NO, model=NO, history=NO, contact=NO
**
** PARTS
**
*Part, name=Part-1
*Node
      1,  0.191388071, 0.0580569357,           0.
      2,  0.176384255, 0.0942793489,           0.
      3,  0.141421363,  0.141421363,           0.
      4,  0.111114047,  0.166293919,           0.
      5, 0.0580569357,  0.191388071,           0.
      6, 0.0196034275,  0.199036941,           0.
      7, -0.0390180647,  0.196157053,           0.
      8, -0.0765366852,  0.184775904,           0.
      9, -0.126878664,  0.154602095,           0.
     10, -0.166293919,  0.111114047,           0.
     11, -0.184775904, 0.0765366852,           0.
     12, -0.199036941, 0.0196034275,           0.
     13, -0.199036941, -0.0196034275,           0.
     14, -0.184775904, -0.0765366852,           0.
     15, -0.166293919, -0.111114047,           0.
     16, -0.126878664, -0.154602095,           0.
     17, -0.0765366852, -0.184775904,           0.
     18, -0.0390180647, -0.196157053,           0.
     19, 0.0196034275, -0.199036941,           0.
     20, 0.0580569357, -0.191388071,           0.
** ... 15542 like lines cut
*Element, type=C3D8R
    1,   557,   556,   639,   640,    55,    54,   137,   138
    2,   519,   554,   641,   637,    17,    52,   139,   135
    3,   666,   682,   685,   672,   164,   180,   183,   170
    4,   518,   552,   567,   636,    16,    50,    65,   134
    5,   593,   629,   549,   548,    91,   127,    47,    46
    6,   548,   515,   592,   593,    46,    13,    90,    91
    7,   646,   633,   547,   514,   144,   131,    45,    12
    8,   928,   706,   917,   714,   426,   204,   415,   212
    9,   543,   542,   588,   631,    41,    40,    86,   129
   10,   511,   541,   628,   587,     9,    39,   126,    85
   11,   569,   647,   510,   539,    67,   145,     8,    37
   12,   914,   585,   537,   508,   412,    83,    35,     6
   13,   581,   582,   534,   506,    79,    80,    32,     4
   14,   564,   525,   602,   570,    62,    23,   100,    68
   15,   600,   601,   562,   524,    98,    99,    60,    22
   16,   560,   559,   598,   626,    58,    57,    96,   124
   17,   559,   522,   597,   598,    57,    20,    95,    96
   18,   571,   581,   506,   533,    69,    79,     4,    31
   19,   531,   504,   578,   579,    29,     2,    76,    77
   20,   504,   530,   572,   578,     2,    28,    70,    76
** ... 14050 like lines cut
*Nset, nset=ALL, generate
     1,  15562,      1
*Elset, elset=ALL, generate
     1,  14070,      1
** Section: Section-1
*Solid Section, elset=ALL, material=Material-1
,
*End Part
**  
**
** ASSEMBLY
**
*Assembly, name=Assembly
**  
*Instance, name=Part-1-1, part=Part-1
*End Instance
**  
*Nset, nset=Set-1, instance=Part-1-1, generate
   1,  502,    1
*Elset, elset=Set-1, instance=Part-1-1, generate
   1,  469,    1
*Nset, nset=Set-2, instance=Part-1-1, generate
 15061,  15562,      1
*Elset, elset=Set-2, instance=Part-1-1, generate
 13602,  14070,      1
*End Assembly
** 
** MATERIALS
** 
*Material, name=Material-1
*Density
1.,
*Elastic
5000., 0.3
** 
** BOUNDARY CONDITIONS
** 
** Name: BC-1 Type: Displacement/Rotation
*Boundary
Set-1, 1, 1
Set-1, 2, 2
Set-1, 3, 3
** ----------------------------------------------------------------
** 
** STEP: Step-1
** 
*Step, name=Step-1, nlgeom=NO
*Static
1., 1., 1e-05, 1.
** 
** BOUNDARY CONDITIONS
** 
** Name: BC-2 Type: Displacement/Rotation
*Boundary
Set-2, 1, 1
Set-2, 2, 2
Set-2, 3, 3, -0.1
** 
** OUTPUT REQUESTS
** 
*Restart, write, frequency=0
** 
** FIELD OUTPUT: F-Output-2
** 
*Output, field
*Node Output, nset=Part-1-1.ALL
COORD, U
*Element Output, elset=Part-1-1.ALL, directions=YES
S, 
** 
** HISTORY OUTPUT: H-Output-1
** 
*Output, history, variable=PRESELECT
*End Step
